[General]
sim-time-limit = 20s
warmup-period = 5s
tkenv-plugin-path = ../../../etc/plugins

**.vector-recording = false
**.pingApp[*].rtt.result-recording-modes = mean

*.numHosts = 10
**.queueType = "DropTailQueue"
**.frameCapacity = 10
**.mtu = 1024B

**.host[*].numPingApps = ${pa=2, 16, 126}
**.host[*].pingApp[*].typename = "PingApp"
**.host[*].pingApp[*].count = 1
**.host[*].pingApp[*].startTime = truncnormal(200ms, 100ms)
**.host[*].pingApp[*].destAddr = "*"

[Config BusLAN10-base]
network = BusLAN
**.datarate = 10Mbps #10Mbps, 100Mbps
**.host[*].pingApp[*].sendInterval = truncnormal(50ms, 25ms) #50, 100
**.host[*].pingApp[*].packetSize = truncnormal(1024B, 512B) #1024, 512

[Config BusLAN10-datarate]
network = BusLAN
**.datarate = 100Mbps #10Mbps, 100Mbps
**.host[*].pingApp[*].sendInterval = truncnormal(50ms, 25ms) #50, 100
**.host[*].pingApp[*].packetSize = truncnormal(1024B, 512B) #1024, 512

[Config BusLAN10-sendinterval]
network = BusLAN
**.datarate = 10Mbps #10Mbps, 100Mbps
**.host[*].pingApp[*].sendInterval = truncnormal(100ms, 50ms) #50, 100
**.host[*].pingApp[*].packetSize = truncnormal(1024B, 512B) #1024, 512

[Config BusLAN10-packetsize]
network = BusLAN
**.datarate = 10Mbps #10Mbps, 100Mbps
**.host[*].pingApp[*].sendInterval = truncnormal(50ms, 25ms) #50, 100
**.host[*].pingApp[*].packetSize = truncnormal(512B, 256B) #1024, 512