[General]
sim-time-limit = 20s
warmup-period = 5s
tkenv-plugin-path = ../../../etc/plugins

**.vector-recording = false
**.pingApp[*].rtt.result-recording-modes = mean

*.numHosts = 10
**.queueType = "DropTailQueue"
**.frameCapacity = 10
**.mtu = 1024B

**.host[*].numPingApps = ${pa=1, 29, 180}
**.host[*].pingApp[*].typename = "PingApp"
**.host[*].pingApp[*].count = 1
**.host[*].pingApp[*].startTime = truncnormal(200ms, 100ms)
**.host[*].pingApp[*].destAddr = "*"

[Config MeshLAN10-base]
network = MeshLAN
**.datarate = 10Mbps #10Mbps, 100Mbps
**.host[*].pingApp[*].sendInterval = truncnormal(50ms, 25ms) #50, 100
**.host[*].pingApp[*].packetSize = truncnormal(1024B, 512B) #1024, 512

[Config MeshLAN10-datarate]
network = MeshLAN
**.datarate = 100Mbps #10Mbps, 100Mbps
**.host[*].pingApp[*].sendInterval = truncnormal(50ms, 25ms) #50, 100
**.host[*].pingApp[*].packetSize = truncnormal(1024B, 512B) #1024, 512

[Config MeshLAN10-sendinterval]
network = MeshLAN
**.datarate = 10Mbps #10Mbps, 100Mbps
**.host[*].pingApp[*].sendInterval = truncnormal(100ms, 50ms) #50, 100
**.host[*].pingApp[*].packetSize = truncnormal(1024B, 512B) #1024, 512

[Config MeshLAN10-packetsize]
network = MeshLAN
**.datarate = 10Mbps #10Mbps, 100Mbps
**.host[*].pingApp[*].sendInterval = truncnormal(50ms, 25ms) #50, 100
**.host[*].pingApp[*].packetSize = truncnormal(512B, 256B) #1024, 512