#
# To try: ./LANs -f mixed.ini
#

[General]
sim-time-limit = 1200s
tkenv-plugin-path = ../../../etc/plugins
**.vector-recording = false

include defaults.ini
