[General]
sim-time-limit = 20s
warmup-period = 5s
tkenv-plugin-path = ../../../etc/plugins

**.vector-recording = false
**.pingApp[*].rtt.result-recording-modes = mean

*.numHosts = 10
**.queueType = "DropTailQueue"
**.frameCapacity = 10														#all our queues have a lenght of 10
**.mtu = 1024B																#MTU is set to 1024B

**.host[*].numPingApps = ${pa=2, 16, 128}									#different numbers of PingApps give us different traffic loads and with that different network saturations
**.host[*].pingApp[*].typename = "PingApp"
**.host[*].pingApp[*].count = 1
**.host[*].pingApp[*].startTime = truncnormal(200ms, 100ms)
**.host[*].pingApp[*].destAddr = "*"										#from all hosts we ping randomly ping all other hosts (and routers)

[Config StarLAN10-base]
network = StarLAN
**.datarate = 10Mbps #10Mbps, 100Mbps										#our baseline connection speeds are 10Mbps
**.host[*].pingApp[*].sendInterval = truncnormal(50ms, 25ms) #50, 100		#our baseline send interval for pings isnormal(50ms, 25ms)
**.host[*].pingApp[*].packetSize = truncnormal(1024B, 512B) #1024, 512		#out baseline packet size for pings is normal(1024B, 512B)

[Config StarLAN10-datarate]
network = StarLAN
**.datarate = 100Mbps #10Mbps, 100Mbps										#we change our connection speeds from 10Mbps to 100Mbps
**.host[*].pingApp[*].sendInterval = truncnormal(50ms, 25ms) #50, 100
**.host[*].pingApp[*].packetSize = truncnormal(1024B, 512B) #1024, 512

[Config StarLAN10-sendinterval]
network = StarLAN
**.datarate = 10Mbps #10Mbps, 100Mbps
**.host[*].pingApp[*].sendInterval = truncnormal(100ms, 50ms) #50, 100		#we change our send intervals from normal(50ms, 25ms) to normal(100ms, 50ms)
**.host[*].pingApp[*].packetSize = truncnormal(1024B, 512B) #1024, 512

[Config StarLAN10-packetsize]
network = StarLAN
**.datarate = 10Mbps #10Mbps, 100Mbps
**.host[*].pingApp[*].sendInterval = truncnormal(50ms, 25ms) #50, 100
**.host[*].pingApp[*].packetSize = truncnormal(512B, 256B) #1024, 512		#we change our baseline packet size for pings from normal(1024B, 512B) to normal(512B, 256B)
